Circuit: * C:\Users\pablo\OneDrive - Universidad Autonoma de Madrid\Asignaturas\CIREL\Prácticas\P7prev\p7_prev1_c.asc

Direct Newton iteration for .op point succeeded.

Date: Tue Nov 24 18:52:45 2020
Total elapsed time: 0.289 seconds.

tnom = 27
temp = 27
method = modified trap
totiter = 2086
traniter = 2082
tranpoints = 1042
accept = 1042
rejected = 0
matrix size = 7
fillins = 0
solver = Normal
Matrix Compiler1: 178 bytes object code size  0.1/0.1/[0.0]
Matrix Compiler2: 427 bytes object code size  0.1/0.1/[0.1]

