Circuit: * C:\Users\pablo\OneDrive - Universidad Autonoma de Madrid\Asignaturas\CIREL\Prácticas\Pr4\p4_trabajo previo.asc

Direct Newton iteration for .op point succeeded.

Date: Tue Oct 13 21:20:16 2020
Total elapsed time: 0.078 seconds.

tnom = 27
temp = 27
method = trap
totiter = 3
traniter = 0
tranpoints = 0
accept = 0
rejected = 0
matrix size = 5
fillins = 0
solver = Normal
Matrix Compiler1: 114 bytes object code size
Matrix Compiler2: 301 bytes object code size
