Circuit: * C:\Users\pablo\OneDrive - Universidad Autonoma de Madrid\Asignaturas\CIREL\Prácticas\P6prev\p6_prev3.asc

Direct Newton iteration for .op point succeeded.

Date: Tue Nov 10 16:34:50 2020
Total elapsed time: 0.108 seconds.

tnom = 27
temp = 27
method = trap
totiter = 3
traniter = 0
tranpoints = 0
accept = 0
rejected = 0
matrix size = 10
fillins = 1
solver = Normal
Matrix Compiler1:      25 opcodes
Matrix Compiler2: 856 bytes object code size
