Circuit: * C:\Users\pablo\OneDrive - Universidad Autonoma de Madrid\Asignaturas\CIREL\Prácticas\P6prev\p6_prev1.asc

Direct Newton iteration for .op point succeeded.

Date: Fri Nov 20 11:14:15 2020
Total elapsed time: 0.119 seconds.

tnom = 27
temp = 27
method = trap
totiter = 3
traniter = 0
tranpoints = 0
accept = 0
rejected = 0
matrix size = 9
fillins = 1
solver = Normal
Matrix Compiler1:      26 opcodes
Matrix Compiler2: 765 bytes object code size
