Circuit: * C:\Users\pablo\OneDrive - Universidad Autonoma de Madrid\Asignaturas\CIREL\Pr1\Draft1.asc

Direct Newton iteration for .op point succeeded.

Date: Tue Sep 22 19:03:58 2020
Total elapsed time: 0.219 seconds.

tnom = 27
temp = 27
method = modified trap
totiter = 3245
traniter = 3240
tranpoints = 1621
accept = 1621
rejected = 0
matrix size = 11
fillins = 1
solver = Normal
Matrix Compiler1: 360 bytes object code size  0.4/0.1/[0.0]
Matrix Compiler2: 725 bytes object code size  0.1/0.1/[0.1]

