Circuit: * C:\Users\pablo\OneDrive - Universidad Autonoma de Madrid\Asignaturas\CIREL\Prácticas\P8\schematics\Draft2.asc

.step r=0.01
.step r=100
.step r=1000
.step r=10000
.step r=100000
.step r=1e+006

Date: Tue Dec 15 18:37:14 2020
Total elapsed time: 0.299 seconds.

tnom = 27
temp = 27
method = trap
totiter = 136
traniter = 0
tranpoints = 0
accept = 0
rejected = 0
matrix size = 6
fillins = 0
solver = Normal
Matrix Compiler1:       9 opcodes  0.1/0.1/[0.0]
Matrix Compiler2: 380 bytes object code size  0.1/0.1/[0.0]

