Circuit: * C:\Users\pablo\OneDrive - Universidad Autonoma de Madrid\Asignaturas\CIREL\Prácticas\P8\schematics\Draft3.asc


Date: Tue Dec 15 18:46:11 2020
Total elapsed time: 0.087 seconds.

tnom = 27
temp = 27
method = trap
totiter = 319
traniter = 0
tranpoints = 0
accept = 0
rejected = 0
matrix size = 6
fillins = 0
solver = Normal
Matrix Compiler1:       9 opcodes  0.1/[0.1]/0.1
Matrix Compiler2: 380 bytes object code size  0.1/0.2/[0.1]

