Circuit: * C:\Users\pablo\OneDrive - Universidad Autonoma de Madrid\Asignaturas\CIREL\Prácticas\P8\schematics\Draft4.asc

.OP point found by inspection.
.step vbb=0
.step vbb=0.2
.step vbb=0.4
.step vbb=0.6
.step vbb=0.8
.step vbb=1
.step vbb=1.2
.step vbb=1.4
.step vbb=1.6
.step vbb=1.8
.step vbb=2
.step vbb=2.2
.step vbb=2.4
.step vbb=2.6
.step vbb=2.8
.step vbb=3
.step vbb=3.2
.step vbb=3.4
.step vbb=3.6
.step vbb=3.8
.step vbb=4
.step vbb=4.2
.step vbb=4.4
.step vbb=4.6
.step vbb=4.8
.step vbb=5

Date: Tue Dec 15 19:08:37 2020
Total elapsed time: 0.624 seconds.

tnom = 27
temp = 27
method = trap
totiter = 1031
traniter = 0
tranpoints = 0
accept = 0
rejected = 0
matrix size = 6
fillins = 0
solver = Normal
Matrix Compiler1: 146 bytes object code size  0.1/0.1/[0.0]
Matrix Compiler2: 380 bytes object code size  0.1/0.1/[0.1]

